*Heading

** Job name: abaqus_meshfile Model name: Model-1

** Generated by: Sunil Bhandari

*Preprint, echo=NO, model=NO, history=NO, contact=NO

**

** PARTS

**

*Part, name=Part-1

*End Part

**

**

** ASSEMBLY

**

*Assembly, name=Assembly

**

*Instance, name=Part-1-1, part=Part-1

*Node
1,0.13960044067796612,0.1164,0.0004
2,0.1404005593220339,0.1164,0.0004
3,0.13960044067796612,0.1172,0.0004
4,0.1404005593220339,0.1172,0.0004
5,0.13960044067796612,0.1164,0.0008
6,0.1404005593220339,0.1164,0.0008
7,0.13960044067796612,0.1172,0.0008
8,0.1404005593220339,0.1172,0.0008
9,0.1412006779661017,0.1164,0.0004
10,0.1412006779661017,0.1172,0.0004
11,0.1412006779661017,0.1164,0.0008
12,0.1412006779661017,0.1172,0.0008
13,0.1420007966101695,0.1164,0.0004
14,0.1420007966101695,0.1172,0.0004
15,0.1420007966101695,0.1164,0.0008
16,0.1420007966101695,0.1172,0.0008
17,0.1428009152542373,0.1164,0.0004
18,0.1428009152542373,0.1172,0.0004
19,0.1428009152542373,0.1164,0.0008
20,0.1428009152542373,0.1172,0.0008
** ... 42868 like lines cut
*Element, type=DC3D8
1,1,2,4,3,5,6,8,7
2,2,9,10,4,6,11,12,8
3,9,13,14,10,11,15,16,12
4,13,17,18,14,15,19,20,16
5,17,21,22,18,19,23,24,20
6,21,25,26,22,23,27,28,24
7,26,29,31,30,28,32,34,33
8,29,35,36,31,32,37,38,34
9,22,26,30,39,24,28,33,40
10,18,22,39,41,20,24,40,42
11,14,18,41,43,16,20,42,44
12,10,14,43,45,12,16,44,46
13,4,10,45,47,8,12,46,48
14,3,4,47,49,7,8,48,50
15,51,3,49,52,53,7,50,54
16,55,51,52,56,57,53,54,58
17,59,55,56,60,61,57,58,62
18,63,59,60,64,65,61,62,66
19,67,63,64,68,69,65,66,70
20,71,67,68,72,73,69,70,74
** ... 33819 like lines cut
*Nset, nset=Set-1, generate
    1,  42888,     1
 *Elset, elset=Set-1, generate
  1,  33839,   1
** Section: Section-1
*Solid Section, elset=Set-1, material=Material-1
,
*End Instance
**
*ELEMENT PROGRESSIVE ACTIVATION, NAME = "EPA", ELSET = PART-1-1.SET-1
*End Assembly
**
** MATERIALS
**
*Material, name=Material-1
*Density
1240,
*Conductivity
 0.33,
*Specific Heat
2020.,

** ----------------------------------------------------------------
**
** STEP: Step-1
**
*Step, name=Step-1, nlgeom=NO, inc=1000
*Heat Transfer, end=PERIOD
1., 100, , ,
